Circuit: * C:\users\chris\Projects\eurorack\DIST\hardware\ltspice\od.asc

WARNING: Less than two connections to node N002.  This node is used by V2.
WARNING: Less than two connections to node NC_01.  This node is used by V1.
WARNING: Less than two connections to node OUT.  This node is used by B2.
Early termination of direct N-R iteration.
Direct Newton iteration failed to find .op point.  (Use ".option noopiter" to skip.)
Starting Gmin stepping
Gmin = 10
vernier = 0.5
vernier = 0.25
vernier = 0.125
Gmin = 5.5165
vernier = 0.0625
vernier = 0.03125
vernier = 0.015625
vernier = 0.0078125
Gmin = 5.49501
vernier = 0.00390625
vernier = 0.00195313
vernier = 0.000976563
vernier = 0.000488281
Gmin = 5.50104
Gmin = 0
Gmin stepping failed

Starting source stepping with srcstepmethod=0
Source Step = 3.0303%
Source Step = 14.3939%
Source Step = 21.9697%
Source Step = 29.5455%
Source Step = 37.1212%
Source Step = 44.697%
vernier = 0.375
Source Step = 54.5455%
Source Step = 65.9091%
Source Step = 77.2727%
Source Step = 88.6364%
Source Step = 100%
Source stepping succeeded in finding the operating point.


Date: Sun May 17 17:46:08 2026
Total elapsed time: 29.296 seconds.

tnom = 27
temp = 27
method = modified trap
totiter = 2395405
traniter = 2393376
tranpoints = 1180791
accept = 1128038
rejected = 52753
matrix size = 95
fillins = 631
solver = Normal
Thread vector: 6.9/4.7[2] 1.7/3.0[1] 2.3/2.4[1] 0.5/2.3[1]  2592/500
Matrix Compiler1: 69.22 KB object code size  12.6/3.1/[2.5]
Matrix Compiler2:    1245 opcodes  1.4/[1.2]/1.3

